*Heading
** Job name: CraneC3D10 Model name: Model-1
** Generated by: Abaqus/CAE 2022
*Preprint, echo=NO, model=NO, history=NO, contact=NO
**
** PARTS
**
*Part, name=Assem1bly-1
*Node
      1,   3.71521997, -0.0389167331, 0.0395000018
      2,   3.69150639, -0.136064366, 0.0395000018
      3,   3.82894039, -0.169611901, 0.0395000018
      4,    3.9544549, -0.280528814, 0.0395000018
      5,   4.04152632, -0.264544457, 0.0395000018
      6,   3.89964747, -0.0839353055, 0.0395000018
      7,   3.79090047, -0.129445538, 0.0395000018
      8,   3.80038571, -0.0905864835, 0.0395000018
      9,   3.86353183, -0.106000356, 0.0395000018
     10,   3.85404634, -0.144859403, 0.0395000018
     11,   4.01109886, -0.268118054, 0.0395000018
     12,   3.98195434, -0.261003941, 0.0395000018
     13,   2.14004993,  0.243239775, 0.0395000018
     14,   2.14811778,  0.192051589, 0.0395000018
     15,   2.28909659,  0.137051597, 0.0395000018
     16,   2.30081534,  0.135011077, 0.0395000018
     17,   2.52610326,  0.141136438, 0.0395000018
     18,   2.57896638,  0.135505587, 0.0395000018
     19,   2.79463077, 0.0828621164, 0.0395000018
     20,   2.81834435,  0.180009753, 0.0395000018
** ... 15473 like lines cut
*Element, type=C3D10
   1,  2604,  1347,  2605,  2606,  2624,  2623,  2622,  2626,  2625,  2627
   2,  2606,  2605,   966,   965,  2627,  2629,  2628,  2631,  2630,  2632
   3,  1347,   914,  2606,  2604,  2634,  2633,  2625,  2624,  2635,  2626
   4,  1901,  1898,  2491,  1419,  2638,  2637,  2636,  2640,  2639,  2641
   5,   994,   995,  1187,  2607,  2644,  2643,  2642,  2646,  2645,  2647
   6,  2087,   994,   995,  1187,  2649,  2644,  2648,  2650,  2642,  2643
   7,   943,  1376,  2037,   944,  2653,  2652,  2651,  2655,  2654,  2656
   8,  1362,  1173,   930,   929,  2659,  2658,  2657,  2661,  2660,  2662
   9,  2608,   929,   928,   980,  2665,  2664,  2663,  2667,  2666,  2668
  10,   673,  2491,  1898,  1287,  2670,  2637,  2669,  2672,  2671,  2673
  11,  1158,   965,   966,  2605,  2675,  2632,  2674,  2676,  2630,  2629
  12,   965,   914,  2606,  1347,  2677,  2633,  2631,  2678,  2634,  2625
  13,  1833,   366,  1102,  2193,  2681,  2680,  2679,  2683,  2682,  2684
  14,   956,  2609,   115,  1338,  2687,  2686,  2685,  2689,  2688,  2690
  15,  1994,  1467,   817,  2587,  2693,  2692,  2691,  2695,  2694,  2696
  16,   905,  1338,   956,   113,  2698,  2689,  2697,  2700,  2699,  2701
  17,  1149,  1006,   956,  2609,  2704,  2703,  2702,  2706,  2705,  2687
  18,  2125,  1149,  1006,   956,  2708,  2704,  2707,  2709,  2702,  2703
  19,   540,  1102,  1832,  2194,  2712,  2711,  2710,  2714,  2713,  2715
  20,  1338,  2609,   115,   123,  2688,  2686,  2690,  2717,  2716,  2718
** ... 7598 like lines cut
*Nset, nset=_PickedSet2, internal, generate
     1,  15493,      1
*Elset, elset=_PickedSet2, internal, generate
    1,  7618,     1
** Section: SteelSection
*Solid Section, elset=_PickedSet2, material=Steel
,
*End Part
**  
*Part, name=Assem1bly-2
*Node
      1,  0.663616776,  0.140000001, -0.0560000017
      2,  0.663616776, 0.0199999996, -0.0560000017
      3,  0.385875583, 0.0199999996, -0.0560000017
      4,  0.261750579, -0.0457801446, -0.0560000017
      5,  0.231031254, -0.0910549611, -0.0560000017
      6,  0.163853988, -0.0799857676, -0.0560000017
      7,  0.150507167, -0.0316735581, -0.0560000017
      8,   0.11100886, -0.0115902629, -0.0560000017
      9, 0.0176358186, -0.0467865132, -0.0560000017
     10, -0.0467024893, 0.0178571437, -0.0560000017
     11,           0.,  0.140000001, -0.0560000017
     12, 0.0149999997,           0., -0.0560000017
     13,           0., -0.0149999997, -0.0560000017
     14,  0.215000004, -0.0700000003, -0.0560000017
     15,  0.200000003, -0.0850000009, -0.0560000017
     16,   2.23146939,  0.164109603, -0.0560000017
     17,   2.28651905,  0.191800416, -0.0560000017
     18,   2.32999992,  0.165000007, -0.0560000017
     19,   2.15647292,  0.020031536, -0.0560000017
     20,   2.14363813,  0.138151169, -0.0560000017
** ... 20590 like lines cut
*Element, type=C3D10
    1,  1403,  2642,  3006,  1402,  3499,  3498,  3497,  3501,  3500,  3502
    2,  3450,  1402,  2939,  3451,  3505,  3504,  3503,  3507,  3506,  3508
    3,  3451,  3450,  1402,  2642,  3507,  3505,  3506,  3510,  3509,  3500
    4,  3452,    84,  3042,  2055,  3513,  3512,  3511,  3515,  3514,  3516
    5,  3453,  1896,  3454,  1897,  3519,  3518,  3517,  3521,  3520,  3522
    6,  2888,  1671,  3403,  3404,  3525,  3524,  3523,  3527,  3526,  3528
    7,  2690,  2417,  3455,  1855,  3531,  3530,  3529,  3533,  3532,  3534
    8,  1918,  1922,  3456,  1909,  3537,  3536,  3535,  3539,  3538,  3540
    9,  3455,  2417,  2445,  2416,  3530,  3542,  3541,  3544,  3543,  3545
   10,   269,   519,  3457,   520,  3548,  3547,  3546,  3550,  3549,  3551
   11,  3458,  3459,   546,   518,  3554,  3553,  3552,  3556,  3555,  3557
   12,  3460,  3426,  3430,  3422,  3560,  3559,  3558,  3562,  3561,  3563
   13,  3461,  2324,  3462,  1919,  3566,  3565,  3564,  3568,  3567,  3569
   14,  3461,  3463,  2316,  2327,  3572,  3571,  3570,  3574,  3573,  3575
   15,  3461,  1910,  3463,  2327,  3577,  3576,  3572,  3574,  3578,  3573
   16,  1921,  2332,  2329,  3461,  3581,  3580,  3579,  3583,  3582,  3584
   17,  3461,  2329,  1921,  1917,  3584,  3579,  3583,  3586,  3585,  3587
   18,  3441,  3446,  3435,  2357,  3590,  3589,  3588,  3592,  3591,  3593
   19,  3461,  3463,  1910,  1900,  3572,  3576,  3577,  3595,  3594,  3596
   20,  1960,  1950,   219,   644,  3599,  3598,  3597,  3601,  3600,  3602
** ... 10119 like lines cut
*Nset, nset=_PickedSet2, internal, generate
     1,  20610,      1
*Elset, elset=_PickedSet2, internal, generate
     1,  10139,      1
** Section: SteelSection
*Solid Section, elset=_PickedSet2, material=Steel
,
*End Part
**  
**
** ASSEMBLY
**
*Assembly, name=Assembly
**  
*Instance, name=Assem1bly-2-1, part=Assem1bly-2
*End Instance
**  
*Instance, name=Assem1bly-1-1, part=Assem1bly-1
*End Instance
**  
*Node
      1,           0.,           0., 0.0480000004
*Node
      2,           0.,           0., -0.0480000004
*Node
      3,   2.29999995,  0.165000007, 0.0480000004
*Node
      4,   2.29999995,  0.165000007, -0.0480000004
*Node
      5,   2.29999995,  0.165000007,           0.
*Node
      6,   1.58000004,  0.219999999,           0.
*Node
      7,    2.1590209,  0.219999999,           0.
*Node
      8,  0.200000003, -0.0700000003,           0.
*Node
      9,  0.100000001, -0.649999976,           0.
*Node
     10,   3.99652696, -0.264560997,           0.
*Element, type=CONN3D2
1,  , 1
*Connector Section, elset=Wire-1-Set-1
Hinge,
"Datum csys-2", "Datum csys-2"
*Element, type=CONN3D2
2,  , 2
*Connector Section, elset=Wire-2-Set-1
Hinge,
"Datum csys-3", "Datum csys-3"
*Element, type=CONN3D2
3, 5, 3
*Connector Section, elset=Wire-3-Set-1
Hinge,
"Datum csys-4", "Datum csys-4"
*Element, type=CONN3D2
4, 5, 4
*Connector Section, elset=Wire-4-Set-1
Hinge,
"Datum csys-5", "Datum csys-5"
*Element, type=CONN3D2
5, 6, 7
*Connector Section, elset=Wire-5-Set-1
Axial,
"Datum csys-6", "Datum csys-6"
*Element, type=CONN3D2
6, 9, 8
*Connector Section, elset=Wire-6-Set-1
Axial,
"Datum csys-7", "Datum csys-7"
*Nset, nset=Wire-1-Set-1
 1,
*Elset, elset=Wire-1-Set-1
 1,
*Nset, nset=Wire-2-Set-1
 2,
*Elset, elset=Wire-2-Set-1
 2,
*Nset, nset=Wire-3-Set-1
 3, 5
*Elset, elset=Wire-3-Set-1
 3,
*Nset, nset=Wire-4-Set-1
 4, 5
*Elset, elset=Wire-4-Set-1
 4,
*Nset, nset=Wire-5-Set-1
 6, 7
*Elset, elset=Wire-5-Set-1
 5,
*Nset, nset=Wire-6-Set-1
 8, 9
*Elset, elset=Wire-6-Set-1
 6,
*Nset, nset=_PickedSet7, internal
 1,
*Nset, nset=_PickedSet9, internal
 2,
*Nset, nset=_PickedSet20, internal
 3,
*Nset, nset=_PickedSet22, internal
 4,
*Nset, nset=_PickedSet27, internal
 5,
*Nset, nset=_PickedSet37, internal
 6,
*Nset, nset=_PickedSet40, internal
 7,
*Elset, elset=_PickedSet44, internal
 5,
*Nset, nset=_PickedSet47, internal
 8,
*Nset, nset=_PickedSet50, internal
 9,
*Elset, elset=_PickedSet54, internal
 6,
*Nset, nset=_PickedSet57, internal
 10,
*Nset, nset=_PickedSet58, internal
 10,
*Elset, elset=__PickedSurf6_S2, internal, instance=Assem1bly-2-1
   98, 1987, 7216, 8707, 9235
*Elset, elset=__PickedSurf6_S3, internal, instance=Assem1bly-2-1
 1341, 8786, 9011, 9231, 9233, 9242, 9612
*Elset, elset=__PickedSurf6_S4, internal, instance=Assem1bly-2-1
 1499, 8801
*Elset, elset=__PickedSurf6_S1, internal, instance=Assem1bly-2-1
 1501, 8690
*Surface, type=ELEMENT, name=_PickedSurf6, internal
__PickedSurf6_S2, S2
__PickedSurf6_S3, S3
__PickedSurf6_S4, S4
__PickedSurf6_S1, S1
*Elset, elset=__PickedSurf8_S3, internal, instance=Assem1bly-2-1
 5050, 5063, 8051, 8053, 8062, 9280
*Elset, elset=__PickedSurf8_S1, internal, instance=Assem1bly-2-1
 5981, 5988, 6047, 9776
*Elset, elset=__PickedSurf8_S2, internal, instance=Assem1bly-2-1
 5983, 8037, 8079
*Elset, elset=__PickedSurf8_S4, internal, instance=Assem1bly-2-1
 6009, 6018, 8039
*Surface, type=ELEMENT, name=_PickedSurf8, internal
__PickedSurf8_S3, S3
__PickedSurf8_S1, S1
__PickedSurf8_S2, S2
__PickedSurf8_S4, S4
*Elset, elset=__PickedSurf19_S3, internal, instance=Assem1bly-2-1
   77,  168,  171,  172,  780, 4937, 8934, 8941
*Elset, elset=__PickedSurf19_S1, internal, instance=Assem1bly-2-1
  778,  781,  782, 3246, 8907
*Elset, elset=__PickedSurf19_S2, internal, instance=Assem1bly-2-1
  784, 8904
*Elset, elset=__PickedSurf19_S4, internal, instance=Assem1bly-2-1
 8902,
*Surface, type=ELEMENT, name=_PickedSurf19, internal
__PickedSurf19_S3, S3
__PickedSurf19_S1, S1
__PickedSurf19_S2, S2
__PickedSurf19_S4, S4
*Elset, elset=__PickedSurf21_S2, internal, instance=Assem1bly-2-1
   10, 5188
*Elset, elset=__PickedSurf21_S3, internal, instance=Assem1bly-2-1
  107,  111, 2631, 4934, 6890, 6947, 7896, 8012, 8537, 8719, 8909
*Elset, elset=__PickedSurf21_S4, internal, instance=Assem1bly-2-1
 6897, 7179
*Elset, elset=__PickedSurf21_S1, internal, instance=Assem1bly-2-1
 7553,
*Surface, type=ELEMENT, name=_PickedSurf21, internal
__PickedSurf21_S2, S2
__PickedSurf21_S3, S3
__PickedSurf21_S4, S4
__PickedSurf21_S1, S1
*Elset, elset=__PickedSurf26_S2, internal, instance=Assem1bly-1-1
   31, 2699, 4948, 5105, 5325, 6431
*Elset, elset=__PickedSurf26_S3, internal, instance=Assem1bly-1-1
  962, 3256, 3595, 3805, 3845, 4947, 5060, 5118, 5603, 6243, 6520
*Elset, elset=__PickedSurf26_S1, internal, instance=Assem1bly-1-1
 1267, 1432, 3566, 4387, 6016, 6401, 6418, 6432
*Elset, elset=__PickedSurf26_S4, internal, instance=Assem1bly-1-1
 2495, 5036, 6165, 6369, 6403, 6419, 6425
*Surface, type=ELEMENT, name=_PickedSurf26, internal
__PickedSurf26_S2, S2
__PickedSurf26_S3, S3
__PickedSurf26_S4, S4
__PickedSurf26_S1, S1
*Elset, elset=__PickedSurf36_S4, internal, instance=Assem1bly-2-1
  251,  288,  319,  758,  759, 7023, 7487, 7505, 8635, 8896, 9863
*Elset, elset=__PickedSurf36_S1, internal, instance=Assem1bly-2-1
   754,   762,   766,  2589,  7508,  7550,  8691,  8808,  8991,  9482, 10016
*Elset, elset=__PickedSurf36_S3, internal, instance=Assem1bly-2-1
  763, 3515, 3519, 3663, 4339, 7497, 8783
*Elset, elset=__PickedSurf36_S2, internal, instance=Assem1bly-2-1
  7470,  8637, 10107
*Surface, type=ELEMENT, name=_PickedSurf36, internal
__PickedSurf36_S4, S4
__PickedSurf36_S1, S1
__PickedSurf36_S2, S2
__PickedSurf36_S3, S3
*Elset, elset=__PickedSurf39_S2, internal, instance=Assem1bly-1-1
 1009, 4932, 5715, 6442, 6448
*Elset, elset=__PickedSurf39_S4, internal, instance=Assem1bly-1-1
 1438, 2005, 4994, 6447, 6469, 6477, 6740
*Elset, elset=__PickedSurf39_S1, internal, instance=Assem1bly-1-1
 1274, 1897, 5005, 5097, 5472, 6242, 6441, 6453, 6454, 6455, 6480
*Elset, elset=__PickedSurf39_S3, internal, instance=Assem1bly-1-1
 1200, 1284, 1809, 4803, 5016, 6320, 6475, 6483, 6751
*Surface, type=ELEMENT, name=_PickedSurf39, internal
__PickedSurf39_S2, S2
__PickedSurf39_S4, S4
__PickedSurf39_S1, S1
__PickedSurf39_S3, S3
*Elset, elset=__PickedSurf46_S3, internal, instance=Assem1bly-2-1
  136, 1318, 1319, 1396, 5571, 5905, 8101, 8872, 8873, 8964, 9195, 9199, 9205, 9212, 9213, 9293
 9542, 9630
*Elset, elset=__PickedSurf46_S2, internal, instance=Assem1bly-2-1
 5838, 5861, 8892, 9189
*Elset, elset=__PickedSurf46_S1, internal, instance=Assem1bly-2-1
 5823, 5866, 5894, 8093, 8098, 8122, 9633
*Elset, elset=__PickedSurf46_S4, internal, instance=Assem1bly-2-1
 5900, 5901, 8125
*Surface, type=ELEMENT, name=_PickedSurf46, internal
__PickedSurf46_S3, S3
__PickedSurf46_S2, S2
__PickedSurf46_S4, S4
__PickedSurf46_S1, S1
*Elset, elset=__PickedSurf56_S1, internal, instance=Assem1bly-1-1
 2146, 2880, 4584, 4638, 4642, 4759, 5601, 5996, 7531
*Elset, elset=__PickedSurf56_S2, internal, instance=Assem1bly-1-1
  477,  716, 2135, 2137, 4573, 4597, 4640
*Elset, elset=__PickedSurf56_S4, internal, instance=Assem1bly-1-1
 2060, 2133, 6006, 6028
*Elset, elset=__PickedSurf56_S3, internal, instance=Assem1bly-1-1
 2000, 2035, 2143, 2149, 2153, 2155, 6109, 7558, 7565, 7567, 7577, 7579
*Surface, type=ELEMENT, name=_PickedSurf56, internal
__PickedSurf56_S1, S1
__PickedSurf56_S2, S2
__PickedSurf56_S4, S4
__PickedSurf56_S3, S3
*Orientation, name="Datum csys-2"
          0.,           0.,           1.,           0.,           1.,           0.
1, 0.
*Orientation, name="Datum csys-3"
          0.,           0.,           1.,           0.,           1.,           0.
1, 0.
*Orientation, name="Datum csys-4"
          0.,           0.,           1.,           0.,           1.,           0.
1, 0.
*Orientation, name="Datum csys-5"
          0.,           0.,           1.,           0.,           1.,           0.
1, 0.
*Orientation, name="Datum csys-6"
          1.,           0.,           0.,           0.,           0.,           1.
1, 0.
*Orientation, name="Datum csys-7"
0.169906916507646, 0.985460115744348,           0., -0.985460115744348, 0.169906916507646,           0.
1, 0.
** Constraint: Constraint-1
*Coupling, constraint name=Constraint-1, ref node=_PickedSet7, surface=_PickedSurf6
*Kinematic
** Constraint: Constraint-2
*Coupling, constraint name=Constraint-2, ref node=_PickedSet9, surface=_PickedSurf8
*Kinematic
** Constraint: Constraint-3
*Coupling, constraint name=Constraint-3, ref node=_PickedSet20, surface=_PickedSurf19
*Kinematic
** Constraint: Constraint-4
*Coupling, constraint name=Constraint-4, ref node=_PickedSet22, surface=_PickedSurf21
*Kinematic
** Constraint: Constraint-5
*Coupling, constraint name=Constraint-5, ref node=_PickedSet27, surface=_PickedSurf26
*Kinematic
** Constraint: Constraint-6
*Coupling, constraint name=Constraint-6, ref node=_PickedSet37, surface=_PickedSurf36
*Kinematic
** Constraint: Constraint-7
*Coupling, constraint name=Constraint-7, ref node=_PickedSet40, surface=_PickedSurf39
*Kinematic
** Constraint: Constraint-8
*Coupling, constraint name=Constraint-8, ref node=_PickedSet47, surface=_PickedSurf46
*Kinematic
** Constraint: Constraint-9
*Coupling, constraint name=Constraint-9, ref node=_PickedSet57, surface=_PickedSurf56
*Kinematic
*End Assembly
*Amplitude, name=MainPistonRamp
             0.,              0.,              4.,              1.,              6.,              1.
*Amplitude, name=StickPistonRamp
             0.,              0.,              4.,              0.,              6.,              1.
*Amplitude, name=TipLoadRamp
             0.,              0.,             0.1,              1.,              1.,              1.
** 
** MATERIALS
** 
*Material, name=Steel
*Density
7850.,
*Elastic
 2.1e+11, 0.3
** 
** BOUNDARY CONDITIONS
** 
** Name: FixBaseCylJoint Type: Symmetry/Antisymmetry/Encastre
*Boundary
_PickedSet50, ENCASTRE
** ----------------------------------------------------------------
** 
** STEP: Dyn
** 
*Step, name=Dyn, nlgeom=YES, inc=10000
*Dynamic
0.0001,6.,1e-09
** 
** BOUNDARY CONDITIONS
** 
** Name: Cyl2Extension Type: Connector displacement
*Connector Motion, amplitude=StickPistonRamp
_PickedSet44, 1, 0.2
** Name: MainCylExtension Type: Connector displacement
*Connector Motion, amplitude=MainPistonRamp
_PickedSet54, 1, 0.202
** 
** LOADS
** 
** Name: Gravity   Type: Gravity
*Dload
, GRAV, 9.81, 0., -1., 0.
** Name: TipLoad   Type: Concentrated force
*Cload, amplitude=TipLoadRamp
_PickedSet58, 2, -1962.
** 
** OUTPUT REQUESTS
** 
*Restart, write, frequency=0
** 
** FIELD OUTPUT: F-Output-1
** 
*Output, field, variable=PRESELECT, frequency=1
** 
** HISTORY OUTPUT: H-Output-1
** 
*Output, history, variable=PRESELECT
*End Step
